data_red-MOF-PM-3M\2\benzene
_audit_creation_date              2022-06-14
_audit_creation_method            'Materials Studio'
_symmetry_space_group_name_H-M    'PM-3M'
_symmetry_Int_Tables_number       221
_symmetry_cell_setting            cubic
loop_
_symmetry_equiv_pos_as_xyz
  x,y,z
  -x,-y,z
  -x,y,-z
  x,-y,-z
  z,x,y
  z,-x,-y
  -z,-x,y
  -z,x,-y
  y,z,x
  -y,z,-x
  y,-z,-x
  -y,-z,x
  y,x,-z
  -y,-x,-z
  y,-x,z
  -y,x,z
  x,z,-y
  -x,z,y
  -x,-z,-y
  x,-z,y
  z,y,-x
  z,-y,x
  -z,y,x
  -z,-y,-x
  -x,-y,-z
  x,y,-z
  x,-y,z
  -x,y,z
  -z,-x,-y
  -z,x,y
  z,x,-y
  z,-x,y
  -y,-z,-x
  y,-z,x
  -y,z,x
  y,z,-x
  -y,-x,z
  y,x,z
  -y,x,-z
  y,-x,-z
  -x,-z,y
  x,-z,-y
  x,z,y
  -x,z,-y
  -z,-y,x
  -z,y,-x
  z,-y,-x
  z,y,x
_cell_length_a                    55.2486
_cell_length_b                    55.2486
_cell_length_c                    55.2486
_cell_angle_alpha                 90.0000
_cell_angle_beta                  90.0000
_cell_angle_gamma                 90.0000
loop_
_atom_site_label
_atom_site_type_symbol
_atom_site_fract_x
_atom_site_fract_y
_atom_site_fract_z
_atom_site_U_iso_or_equiv
_atom_site_adp_type
_atom_site_occupancy
O1     O    -0.96398   0.69265   0.26963   0.00000  Uiso   1.00
O2     O    -0.29885   0.66843   0.97774   0.00000  Uiso   1.00
C3     C    -0.27986   0.67205   0.96506   0.00000  Uiso   1.00
C4     C    -0.26891   0.65228   0.95081   0.00000  Uiso   1.00
C5     C    -0.24570   0.65566   0.94115   0.00000  Uiso   1.00
C6     C    -0.28125   0.63063   0.94596   0.00000  Uiso   1.00
C7     C    -0.27043   0.61276   0.93147   0.00000  Uiso   1.00
C8     C    -0.23492   0.63789   0.92691   0.00000  Uiso   1.00
C9     C    -0.19984   0.54382   0.86211   0.00000  Uiso   1.00
C10    C    -0.24713   0.61627   0.92176   0.00000  Uiso   1.00
C11    C    -0.23535   0.59776   0.90626   0.00000  Uiso   1.00
C12    C    -0.24865   0.57856   0.89628   0.00000  Uiso   1.00
C13    C    -0.23727   0.56132   0.88160   0.00000  Uiso   1.00
C14    C    -0.21237   0.56289   0.87667   0.00000  Uiso   1.00
C15    C    -0.19911   0.58209   0.88662   0.00000  Uiso   1.00
C16    C    -0.21050   0.59937   0.90113   0.00000  Uiso   1.00
C17    C    -0.20272   0.51942   0.86908   0.00000  Uiso   1.00
C18    C    -0.21479   0.51240   0.88988   0.00000  Uiso   1.00
C19    C    -0.18488   0.55093   0.84263   0.00000  Uiso   1.00
C20    C    -0.18340   0.57447   0.83418   0.00000  Uiso   1.00
O21    O     0.24727   1.02027   1.27481   0.00000  Uiso   1.00
C22    C     0.19787   1.02189   1.26468   0.00000  Uiso   1.00
C23    C     0.17383   1.02189   1.25699   0.00000  Uiso   1.00
C24    C     0.10105   1.02167   1.22970   0.00000  Uiso   1.00
C25    C     0.12459   1.02179   1.23876   0.00000  Uiso   1.00
C26    C     1.02226   0.78623   0.04977   0.00000  Uiso   1.00
C27    C     1.04390   0.79091   0.06133   0.00000  Uiso   1.00
Al28   Al    0.27870   0.72130   0.97406   0.00000  Uiso   1.00
N29    N     0.27750   0.72250   0.05971   0.00000  Uiso   1.00
O30    O     0.00000   0.29035   0.29035   0.00000  Uiso   1.00
Al31   Al    0.00000   0.31259   0.31259   0.00000  Uiso   1.00
N32    N     0.00000   0.33645   0.33645   0.00000  Uiso   1.00
C33    C     0.00000   0.27371   0.23608   0.00000  Uiso   1.00
C34    C     0.00000   0.21007   0.26843   0.00000  Uiso   1.00
C35    C     0.00000   0.16165   0.25281   0.00000  Uiso   1.00
C36    C     0.00000   0.08864   0.22462   0.00000  Uiso   1.00
C37    C     0.00000   0.13661   0.24343   0.00000  Uiso   1.00
C38    C     0.00000   0.06213   0.21686   0.00000  Uiso   1.00
N39    N     1.02556   0.78420   1.02556   0.00000  Uiso   1.00
N40    N     0.16916   0.53632   0.16916   0.00000  Uiso   1.00
N41    N     0.14369   0.50000   0.19503   0.00000  Uiso   1.00
Pd42   Pd    0.17000   0.50000   0.17000   0.00000  Uiso   1.00
Pd43   Pd    0.00000   0.00000   0.78000   0.00000  Uiso   1.00
loop_
_geom_bond_atom_site_label_1
_geom_bond_atom_site_label_2
_geom_bond_distance
_geom_bond_site_symmetry_2
_ccdc_geom_bond_type
O1     C3      1.272   46    A
O1     Al28    1.751   23    S
O2     C3      1.278   .     A
O2     Al31    1.785   12_566 S
C3     C4      1.476   .     S
C3     O1      1.272   46    A
C4     C6      1.402   .     A
C4     C5      1.401   .     A
C5     C8      1.392   .     A
C6     C7      1.405   .     A
C7     C10     1.408   .     A
C8     C10     1.401   .     A
C9     C14     1.495   .     S
C9     C17     1.411   .     A
C9     C19     1.413   .     A
C10    C11     1.484   .     S
C11    C12     1.403   .     A
C11    C16     1.405   .     A
C12    C13     1.400   .     A
C13    C14     1.405   .     A
C14    C15     1.401   .     A
C15    C16     1.396   .     A
C17    C18     1.384   .     A
C17    N41     1.352   24_566 A
C18    C18     1.370   27_565 A
C19    C20     1.384   .     A
C19    N40     1.353   3_556 A
C20    C20     1.374   48_456 A
O21    Al28    1.777   12_676 S
O21    C33     1.280   5_566 A
C22    C34     1.400   15_566 A
C22    C23     1.394   .     A
C23    C35     1.403   15_566 A
C24    C25     1.394   .     A
C24    C36     1.408   15_566 A
C25    C37     1.399   15_566 A
C26    C27     1.380   .     A
C26    C38     1.417   20_665 A
C26    N39     1.355   1_554 A
C27    C27     1.361   48_654 A
Al28   O1      1.751   21    S
Al28   O1      1.751   33_665 S
Al28   O21     1.777   42_577 S
Al28   O21     1.777   6_467 S
Al28   O30     1.698   11_566 S
Al28   N29     1.868   14_666 S
N29    Al28    1.868   14_666 S
O30    Al28    1.698   8_656 S
O30    Al28    1.698   22_465 S
O30    Al31    1.738   .     S
Al31   O2      1.785   24_665 S
Al31   O2      1.785   6_456 S
Al31   O2      1.785   47_465 S
Al31   O2      1.785   29_656 S
Al31   N32     1.864   .     S
C33    O21     1.280   9_445 A
C33    O21     1.280   35_645 A
C33    C34     1.467   18    S
C34    C33     1.467   18    S
C34    C22     1.400   38_454 A
C34    C22     1.400   16_654 A
C35    C23     1.403   38_454 A
C35    C23     1.403   16_654 A
C35    C37     1.477   .     S
C36    C24     1.408   38_454 A
C36    C24     1.408   16_654 A
C36    C38     1.526   .     S
C37    C25     1.399   38_454 A
C37    C25     1.399   16_654 A
C38    C26     1.417   17_456 A
C38    C26     1.417   44_656 A
N39    C26     1.355   48_655 A
N39    C26     1.355   1_556 A
N39    Pd43    2.010   9_656 S
N40    C19     1.353   3_556 A
N40    C19     1.353   46_655 A
N40    Pd42    2.008   .     S
N41    C17     1.352   46_655 A
N41    C17     1.352   24_665 A
N41    Pd42    2.006   .     S
Pd42   N40     2.008   22_565 S
Pd42   N41     2.006   22_565 S
Pd43   N39     2.010   20_465 S
Pd43   N39     2.010   18_645 S
Pd43   N39     2.010   7_665 S
Pd43   N39     2.010   5_445 S
