data_hmc-MOF-long\(2)
_audit_creation_date              2022-06-14
_audit_creation_method            'Materials Studio'
_symmetry_space_group_name_H-M    'PM-3'
_symmetry_Int_Tables_number       200
_symmetry_cell_setting            cubic
loop_
_symmetry_equiv_pos_as_xyz
  x,y,z
  -x,-y,z
  -x,y,-z
  x,-y,-z
  z,x,y
  z,-x,-y
  -z,-x,y
  -z,x,-y
  y,z,x
  -y,z,-x
  y,-z,-x
  -y,-z,x
  -x,-y,-z
  x,y,-z
  x,-y,z
  -x,y,z
  -z,-x,-y
  -z,x,y
  z,x,-y
  z,-x,y
  -y,-z,-x
  y,-z,x
  -y,z,x
  y,z,-x
_cell_length_a                    70.0126
_cell_length_b                    70.0126
_cell_length_c                    70.0126
_cell_angle_alpha                 90.0000
_cell_angle_beta                  90.0000
_cell_angle_gamma                 90.0000
loop_
_atom_site_label
_atom_site_type_symbol
_atom_site_fract_x
_atom_site_fract_y
_atom_site_fract_z
_atom_site_U_iso_or_equiv
_atom_site_adp_type
_atom_site_occupancy
C1     C     0.76675   0.66107   0.81475   0.12300  Uiso   1.00
C2     C     0.75033   0.66898   0.80656   0.16200  Uiso   1.00
Cr3    Cr    0.35598   0.67660   0.67810   0.00000  Uiso   1.00
N4     N     0.37901   0.68740   0.69057   0.00000  Uiso   1.00
C5     C     0.36126   0.63508   0.68037   0.00000  Uiso   1.00
O6     O     0.32695   0.65142   0.70216   0.00000  Uiso   1.00
O7     O     0.36561   0.65220   0.68470   0.00000  Uiso   1.00
O8     O     0.34470   0.63025   0.67482   0.00000  Uiso   1.00
C9     C     0.48468   0.68819   0.54049   0.00000  Uiso   1.00
C10    C     0.49021   0.69020   0.55935   0.00000  Uiso   1.00
C11    C     0.76303   0.16485   0.30920   0.12300  Uiso   1.00
C12    C     0.74607   0.17155   0.30099   0.16200  Uiso   1.00
Cr13   Cr    0.35727   0.17857   0.17436   0.00000  Uiso   1.00
O14    O     0.32883   0.15093   0.19606   0.00000  Uiso   1.00
C15    C     0.26239   0.66778   0.31115   0.12300  Uiso   1.00
C16    C     0.24549   0.67585   0.30447   0.16200  Uiso   1.00
Cr17   Cr    0.86020   0.67615   0.17948   0.00000  Uiso   1.00
O18    O     0.82074   0.65624   0.20105   0.00000  Uiso   1.00
C19    C     0.26413   0.16611   0.81300   0.12300  Uiso   1.00
C20    C     0.24644   0.17210   0.80611   0.16200  Uiso   1.00
Cr21   Cr    0.85574   0.17253   0.67600   0.00000  Uiso   1.00
N22    N     0.87977   0.18224   0.68746   0.00000  Uiso   1.00
O23    O     0.82027   0.15189   0.70023   0.00000  Uiso   1.00
C24    C     0.67193   0.76534   0.19367   0.12300  Uiso   1.00
C25    C     0.68004   0.74841   0.20030   0.16200  Uiso   1.00
C26    C     0.66777   0.33288   0.29034   0.00000  Uiso   1.00
O27    O     0.65703   0.32110   0.29887   0.00000  Uiso   1.00
C28    C     0.66246   0.26259   0.69002   0.12300  Uiso   1.00
C29    C     0.66922   0.24558   0.69818   0.16200  Uiso   1.00
C30    C     0.63462   0.86213   0.83034   0.00000  Uiso   1.00
C31    C     0.66163   0.83878   0.79299   0.00000  Uiso   1.00
O32    O     0.65065   0.82938   0.80339   0.00000  Uiso   1.00
O33    O     0.65202   0.86791   0.82931   0.00000  Uiso   1.00
O34    O     0.62931   0.84455   0.82948   0.00000  Uiso   1.00
C35    C     0.69599   0.98446   0.95962   0.00000  Uiso   1.00
C36    C     0.69764   0.98970   0.94063   0.00000  Uiso   1.00
C37    C     0.16195   0.76746   0.68654   0.12300  Uiso   1.00
C38    C     0.17015   0.75104   0.69445   0.16200  Uiso   1.00
N39    N     0.18720   0.37996   0.81033   0.00000  Uiso   1.00
C40    C     0.13343   0.36353   0.81488   0.00000  Uiso   1.00
C41    C     0.16862   0.33199   0.79023   0.00000  Uiso   1.00
O42    O     0.14967   0.32921   0.79525   0.00000  Uiso   1.00
O43    O     0.15104   0.36726   0.81196   0.00000  Uiso   1.00
O44    O     0.12743   0.34743   0.82072   0.00000  Uiso   1.00
C45    C     0.15928   0.48447   0.95965   0.00000  Uiso   1.00
C46    C     0.15751   0.48971   0.94068   0.00000  Uiso   1.00
C47    C     0.16350   0.26360   0.19143   0.12300  Uiso   1.00
C48    C     0.17040   0.24588   0.19742   0.16200  Uiso   1.00
N49    N     0.19266   0.88256   0.31249   0.00000  Uiso   1.00
C50    C     0.13978   0.86789   0.31665   0.00000  Uiso   1.00
C51    C     0.17018   0.83447   0.29210   0.00000  Uiso   1.00
O52    O     0.15628   0.82565   0.30010   0.00000  Uiso   1.00
O53    O     0.15663   0.87400   0.31785   0.00000  Uiso   1.00
O54    O     0.13768   0.85045   0.31913   0.00000  Uiso   1.00
C55    C     0.20958   0.98448   0.45966   0.00000  Uiso   1.00
C56    C     0.21076   0.98970   0.44063   0.00000  Uiso   1.00
C57    C     0.71640   0.68590   0.78902   0.24265  Uani   1.00
C58    C     0.71165   0.18783   0.28247   0.24265  Uani   1.00
C59    C     0.69445   0.19497   0.27490   0.35800  Uiso   1.00
C60    C     0.78860   0.81346   0.78964   0.24265  Uani   1.00
C61    C     0.78770   0.69335   0.71144   0.24265  Uani   1.00
C62    C     0.77546   0.66982   0.83051   0.13600  Uiso   1.00
C63    C     0.74229   0.68579   0.81398   0.18200  Uiso   1.00
C64    C     0.27118   0.67482   0.32766   0.13600  Uiso   1.00
C65    C     0.23697   0.69129   0.31401   0.18200  Uiso   1.00
C66    C     0.72710   0.82420   0.82814   0.13600  Uiso   1.00
C67    C     0.76281   0.81210   0.81425   0.18200  Uiso   1.00
C68    C     0.77273   0.82415   0.67715   0.13600  Uiso   1.00
C69    C     0.73852   0.81068   0.69360   0.18200  Uiso   1.00
O70    O     0.33510   0.16737   0.16217   0.00000  Uiso   1.00
C71    C     0.70040   0.69429   0.21971   0.00000  Uiso   1.00
C72    C     0.70165   0.72028   0.19645   0.00000  Uiso   1.00
C73    C     0.80599   0.21915   0.19507   0.00000  Uiso   1.00
C74    C     0.54989   0.55032   0.68604   0.00000  Uiso   1.00
C75    C     0.54993   0.56578   0.69879   0.00000  Uiso   1.00
C76    C     0.56444   0.57950   0.69806   0.00000  Uiso   1.00
C77    C     0.57930   0.57794   0.68468   0.00000  Uiso   1.00
C78    C     0.57926   0.56243   0.67197   0.00000  Uiso   1.00
C79    C     0.56468   0.54881   0.67261   0.00000  Uiso   1.00
C80    C     1.04948   0.54956   0.79479   0.00000  Uiso   1.00
C81    C     1.04787   0.56224   0.81019   0.00000  Uiso   1.00
C82    C     1.06161   0.57633   0.81314   0.00000  Uiso   1.00
C83    C     1.07735   0.57791   0.80086   0.00000  Uiso   1.00
C84    C     1.07907   0.56512   0.78552   0.00000  Uiso   1.00
C85    C     1.06519   0.55109   0.78245   0.00000  Uiso   1.00
C86    C     0.95023   0.83829   0.45028   0.00000  Uiso   1.00
C87    C     0.93581   0.82442   0.45155   0.00000  Uiso   1.00
C88    C     0.92129   0.82359   0.43791   0.00000  Uiso   1.00
C89    C     0.92101   0.83647   0.42260   0.00000  Uiso   1.00
C90    C     0.93554   0.85021   0.42116   0.00000  Uiso   1.00
C91    C     0.94995   0.85119   0.56506   0.00000  Uiso   1.00
C92    C     0.30587   1.04983   0.95025   0.00000  Uiso   1.00
C93    C     0.31966   1.04898   0.93572   0.00000  Uiso   1.00
C94    C     0.32043   1.06307   0.92161   0.00000  Uiso   1.00
C95    C     0.30754   1.07839   0.92185   0.00000  Uiso   1.00
C96    C     0.29377   1.07928   0.93640   0.00000  Uiso   1.00
C97    C     0.29286   1.06507   0.95038   0.00000  Uiso   1.00
C98    C     0.46540   0.53546   0.68691   0.00000  Uiso   1.00
C99    C     0.48463   0.54092   0.68636   0.00000  Uiso   1.00
C100   C     0.49023   0.55981   0.68486   0.00000  Uiso   1.00
C101   C     1.03464   0.46545   0.20804   0.00000  Uiso   1.00
C102   C     1.04037   0.51538   0.20795   0.00000  Uiso   1.00
C103   C     1.05925   0.50979   0.20612   0.00000  Uiso   1.00
C104   C     0.53472   0.96539   0.16060   0.00000  Uiso   1.00
C105   C     0.54039   0.98460   0.16123   0.00000  Uiso   1.00
C106   C     0.55927   0.99021   0.16298   0.00000  Uiso   1.00
C107   C     0.96527   1.03463   0.69486   0.00000  Uiso   1.00
C108   C     0.95962   1.01541   0.69415   0.00000  Uiso   1.00
C109   C     0.94074   1.00979   0.69244   0.00000  Uiso   1.00
C110   C     0.16460   0.59190   0.90572   0.00000  Uiso   1.00
C111   C     0.15857   0.61069   0.90914   0.00000  Uiso   1.00
C112   C     0.16012   0.62453   0.89487   0.00000  Uiso   1.00
C113   C     0.16750   0.61979   0.87687   0.00000  Uiso   1.00
C114   C     0.17331   0.60097   0.87332   0.00000  Uiso   1.00
C115   C     0.17196   0.58715   0.88768   0.00000  Uiso   1.00
C116   C     0.09253   0.69105   0.90621   0.00000  Uiso   1.00
C117   C     0.08792   0.69695   0.88764   0.00000  Uiso   1.00
C118   C     0.10102   0.69471   0.87279   0.00000  Uiso   1.00
C119   C     0.11905   0.68679   0.87628   0.00000  Uiso   1.00
C120   C     0.12387   0.68115   0.89486   0.00000  Uiso   1.00
C121   C     0.11065   0.68318   0.90972   0.00000  Uiso   1.00
C122   C     0.80418   0.09180   0.40709   0.00000  Uiso   1.00
C123   C     0.79675   0.11033   0.40883   0.00000  Uiso   1.00
C124   C     0.80025   0.12398   0.39468   0.00000  Uiso   1.00
C125   C     0.81107   0.11921   0.37852   0.00000  Uiso   1.00
C126   C     0.81839   0.10068   0.37673   0.00000  Uiso   1.00
C127   C     0.81504   0.08713   0.39092   0.00000  Uiso   1.00
C128   C     0.62027   0.31805   0.62383   0.00000  Uiso   1.00
C129   C     0.62418   0.30852   0.60665   0.00000  Uiso   1.00
C130   C     0.61037   0.30748   0.59227   0.00000  Uiso   1.00
C131   C     0.59244   0.31611   0.59470   0.00000  Uiso   1.00
C132   C     0.58856   0.32565   0.61192   0.00000  Uiso   1.00
C133   C     0.60232   0.32656   0.62637   0.00000  Uiso   1.00
N134   N     0.15990   0.50000   0.97115   0.00000  Uiso   1.00
N135   N     0.02880   0.50000   0.20904   0.00000  Uiso   1.00
N136   N     0.69538   0.00000   0.97112   0.00000  Uiso   1.00
N137   N     0.20939   0.00000   0.47116   0.00000  Uiso   1.00
N138   N     0.47119   0.00000   0.16034   0.00000  Uiso   1.00
N139   N     0.97120   0.00000   0.69498   0.00000  Uiso   1.00
O140   O     0.33386   0.66614   0.66614   0.00000  Uiso   1.00
N141   N     0.50000   0.68729   0.52889   0.00000  Uiso   1.00
N142   N     0.50000   0.52916   0.68703   0.00000  Uiso   1.00
Pd143  Pd    0.50000   0.50000   0.68710   0.00000  Uiso   1.00
Pd144  Pd    0.00000   0.50000   0.79081   0.00000  Uiso   1.00
Pd145  Pd    0.50000   0.00000   0.16015   0.00000  Uiso   1.00
Pd146  Pd    0.00000   0.00000   0.69517   0.00000  Uiso   1.00
loop_
_atom_site_aniso_label
_atom_site_aniso_U_11
_atom_site_aniso_U_22
_atom_site_aniso_U_33
_atom_site_aniso_U_12
_atom_site_aniso_U_13
_atom_site_aniso_U_23
C57       0.22186   0.28422   0.22186   0.11393  -0.10673  -0.11393
C58       0.22186   0.28422   0.22186   0.11393  -0.10673  -0.11393
C60       0.22186   0.28422   0.22186   0.11393   0.10673   0.11393
C61       0.22186   0.28422   0.22186  -0.11393  -0.10673   0.11393
loop_
_geom_bond_atom_site_label_1
_geom_bond_atom_site_label_2
_geom_bond_distance
_geom_bond_site_symmetry_2
_ccdc_geom_bond_type
C1     C62     1.402   .     A
C1     C2      1.399   .     A
C2     C63     1.404   .     A
Cr3    O140    1.907   .     S
Cr3    N4      1.984   .     S
Cr3    O7      1.893   .     S
Cr3    O27     1.859   13_666 S
Cr3    O8      1.869   10_656 S
Cr3    O6      1.897   10_656 S
C5     O7      1.273   .     A
C5     O8      1.269   .     A
C5     C128    1.476   8_656 S
O6     Cr3     1.897   7_665 S
O6     C26     1.272   13_666 A
O8     Cr3     1.869   7_665 S
C9     C10     1.383   .     A
C9     N141    1.347   .     A
C9     C98     1.472   10_656 S
C10    C10     1.371   16_655 A
C11    C12     1.400   .     A
C11    C68     1.403   4_566 A
C12    C69     1.404   4_566 A
Cr13   O70     1.938   .     S
Cr13   O32     1.744   13_666 A
Cr13   O34     1.891   13_666 S
Cr13   O18     1.868   10_656 S
Cr13   O43     1.896   22_565 S
Cr13   N39     1.984   22_565 S
O14    C31     1.246   13_666 A
O14    Cr21    1.745   7_665 A
C15    C64     1.399   .     A
C15    C16     1.392   .     A
C16    C65     1.404   .     A
Cr17   O70     1.947   7_665 S
Cr17   O42     1.936   13_666 S
Cr17   O44     1.864   13_666 S
Cr17   N49     1.984   22_565 S
Cr17   O23     1.886   10_656 S
Cr17   O53     1.916   22_565 S
O18    Cr13    1.868   7_665 S
O18    C41     1.267   13_666 A
C19    C20     1.393   .     A
C19    C66     1.401   2_665 A
C20    C67     1.402   2_665 A
Cr21   N22     1.984   .     S
Cr21   O14     1.745   10_656 A
Cr21   O70     1.936   10_656 S
Cr21   O52     1.877   13_666 S
Cr21   O54     1.708   13_666 A
Cr21   O33     1.887   22_565 S
O23    Cr17    1.886   7_665 S
O23    C51     1.283   13_666 A
C24    C25     1.394   .     A
C24    C68     1.399   19_556 A
C25    C69     1.405   19_556 A
C26    O27     1.266   .     A
C26    O6      1.272   13_666 A
C26    C64     1.476   9     S
O27    Cr3     1.859   13_666 S
C28    C29     1.403   .     A
C28    C64     1.405   18_655 A
C29    C65     1.405   18_655 A
C30    O33     1.285   .     A
C30    O34     1.287   .     A
C30    C113    1.472   24_556 S
C31    O32     1.247   .     A
C31    O14     1.246   13_666 A
C31    C62     1.473   9     S
O32    Cr13    1.744   13_666 A
O33    Cr21    1.887   19_556 S
O34    Cr13    1.891   13_666 S
C35    C36     1.384   .     A
C35    N136    1.354   1_565 A
C35    C107    1.405   19_557 A
C36    C36     1.442   15_575 S
C37    C38     1.399   .     A
C37    C62     1.401   18_655 A
C38    C63     1.406   18_655 A
N39    Cr13    1.984   19_556 S
C40    O43     1.277   .     A
C40    O44     1.271   .     A
C40    C125    1.470   9     S
C41    O42     1.386   .     S
C41    O18     1.267   13_666 A
C41    C68     1.472   12_665 S
O42    Cr17    1.936   13_666 S
O43    Cr13    1.896   19_556 S
O44    Cr17    1.864   13_666 S
C45    C46     1.384   .     A
C45    N134    1.354   .     A
C45    C104    1.405   20_565 A
C46    C46     1.441   15_565 S
C47    C48     1.395   .     A
C47    C66     1.401   17_666 A
C48    C67     1.404   17_666 A
N49    Cr17    1.984   19_556 S
C50    O53     1.258   .     A
C50    O54     1.242   .     A
C50    C119    1.469   17_666 S
C51    O52     1.282   .     A
C51    O23     1.283   13_666 A
C51    C66     1.470   10_656 S
O52    Cr21    1.877   13_666 S
O53    Cr17    1.916   19_556 S
O54    Cr21    1.708   13_666 A
C55    C56     1.384   .     A
C55    N137    1.352   1_565 A
C55    C101    1.403   20_575 A
C56    C56     1.443   15_575 S
C57    C71     1.405   14_556 A
C57    C59     1.409   8_656 A
C58    C59     1.407   .     A
C58    C72     1.402   24_556 A
C59    C57     1.409   11_566 A
C59    C63     1.486   11_566 S
C60    C73     1.400   8_656 A
C60    C73     1.401   12_665 A
C61    C71     1.399   18_655 A
C61    C72     1.397   18_655 A
C62    C31     1.473   5     S
C62    C37     1.401   24_556 A
C63    C38     1.406   24_556 A
C63    C59     1.486   8_656 S
C64    C26     1.476   5     S
C64    C28     1.405   24_556 A
C65    C29     1.405   24_556 A
C65    C71     1.485   19_556 S
C66    C19     1.401   2_665 A
C66    C47     1.401   21_666 A
C66    C51     1.470   7_665 S
C67    C20     1.402   2_665 A
C67    C48     1.404   21_666 A
C67    C73     1.477   12_665 S
C68    C11     1.403   4_566 A
C68    C24     1.399   22_565 A
C68    C41     1.472   6_566 S
C69    C12     1.404   4_566 A
C69    C25     1.405   22_565 A
C69    C72     1.482   22_565 S
O70    Cr17    1.947   10_656 S
O70    Cr21    1.936   7_665 S
C71    C57     1.405   14_556 A
C71    C61     1.399   24_556 A
C71    C65     1.485   22_565 S
C72    C58     1.402   18_655 A
C72    C61     1.397   24_556 A
C72    C69     1.482   19_556 S
C73    C60     1.400   11_566 A
C73    C60     1.401   6_566 A
C73    C67     1.477   6_566 S
C74    C75     1.403   .     A
C74    C79     1.403   .     A
C74    C98     1.494   16_655 S
C75    C76     1.399   .     A
C76    C77     1.404   .     A
C77    C78     1.403   .     A
C77    C131    1.482   19_556 S
C78    C79     1.397   .     A
C80    C81     1.401   .     A
C80    C85     1.403   .     A
C80    C101    1.491   4_566 S
C81    C82     1.393   .     A
C82    C83     1.402   .     A
C83    C84     1.404   .     A
C83    C122    1.476   22_665 S
C84    C85     1.398   .     A
C86    C87     1.403   .     A
C86    C91     1.403   14_556 A
C86    C104    1.496   11_566 S
C87    C88     1.396   .     A
C88    C89     1.402   .     A
C89    C90     1.404   .     A
C89    C110    1.477   6_566 S
C90    C91     1.398   14_556 A
C91    C86     1.403   14_556 A
C91    C90     1.398   14_556 A
C92    C93     1.404   .     A
C92    C97     1.403   .     A
C92    C107    1.497   17_677 S
C93    C94     1.397   .     A
C94    C95     1.402   .     A
C95    C96     1.403   .     A
C95    C116    1.478   21_676 S
C96    C97     1.397   .     A
C98    C74     1.494   16_655 S
C98    C9      1.472   7_665 S
C98    C99     1.400   .     A
C99    C100    1.383   .     A
C99    N142    1.356   .     A
C100   C100    1.368   16_655 A
C101   C80     1.491   4_566 S
C101   C55     1.403   23_755 A
C101   C102    1.401   15_565 A
C102   C101    1.401   15_565 A
C102   C103    1.384   .     A
C102   N135    1.349   1_655 A
C103   C103    1.371   15_565 A
C104   C86     1.496   8_656 S
C104   C45     1.405   23_655 A
C104   C105    1.403   .     A
C105   C106    1.384   .     A
C105   N138    1.350   2_665 A
C106   C106    1.371   15_575 A
C107   C92     1.497   21_776 S
C107   C35     1.405   22_575 A
C107   C108    1.404   .     A
C108   C109    1.384   .     A
C108   N139    1.351   1_565 A
C109   C109    1.371   15_575 A
C110   C89     1.477   12_665 S
C110   C111    1.402   .     A
C110   C115    1.404   .     A
C111   C112    1.396   .     A
C112   C113    1.402   .     A
C113   C114    1.401   .     A
C113   C30     1.472   18_655 S
C114   C115    1.398   .     A
C116   C95     1.478   17_667 S
C116   C117    1.402   .     A
C116   C121    1.405   .     A
C117   C118    1.395   .     A
C118   C119    1.400   .     A
C119   C120    1.401   .     A
C119   C50     1.469   21_666 S
C120   C121    1.400   .     A
C122   C83     1.476   19_546 S
C122   C123    1.403   .     A
C122   C127    1.402   .     A
C123   C124    1.398   .     A
C124   C125    1.402   .     A
C125   C126    1.400   .     A
C125   C40     1.470   5     S
C126   C127    1.394   .     A
C128   C5      1.476   11_566 S
C128   C129    1.402   .     A
C128   C133    1.402   .     A
C129   C130    1.398   .     A
C130   C131    1.404   .     A
C131   C132    1.405   .     A
C131   C77     1.482   22_565 S
C132   C133    1.399   .     A
N134   C45     1.354   15_565 A
N134   Pd145   2.020   5_556 S
N135   C102    1.349   1_455 A
N135   C102    1.349   15_465 A
N135   Pd144   2.017   3_556 S
N136   C35     1.354   1_545 A
N136   C35     1.354   15_565 A
N136   Pd146   2.022   5_556 S
N137   C55     1.352   1_545 A
N137   C55     1.352   15_565 A
N137   Pd144   2.019   7_655 S
N138   C105    1.350   16_645 A
N138   C105    1.350   2_665 A
N138   Pd145   2.017   .     S
N139   Pd146   2.016   1_655 S
N139   C108    1.351   1_545 A
N139   C108    1.351   15_565 A
O140   Cr3     1.907   7_665 S
O140   Cr3     1.907   10_656 S
N141   C9      1.347   16_655 A
N141   Pd143   2.023   9     S
N142   C99     1.356   16_655 A
N142   Pd143   2.041   .     S
Pd143  N142    2.041   2_665 S
Pd143  N141    2.023   5     S
Pd143  N141    2.023   7_665 S
Pd144  N137    2.019   11_566 S
Pd144  N137    2.019   10_556 S
Pd144  N135    2.017   3_556 S
Pd144  N135    2.017   4_566 S
Pd145  N138    2.017   2_655 S
Pd145  N134    2.020   12_665 S
Pd145  N134    2.020   9_545 S
Pd146  N139    2.016   2_655 S
Pd146  N139    2.016   1_455 S
Pd146  N136    2.022   12_565 S
Pd146  N136    2.022   9_545 S
